Circuit: * C:\git-checkouts\high-side-switch\ltspice\switch_tran.asc

Direct Newton iteration for .op point succeeded.
Heightened Def Con from 0.01 ++to 0.01
Heightened Def Con from 0.01 to 0.01
Heightened Def Con from 0.0100005 to 0.0100005
Heightened Def Con from 0.0100005 to 0.0100005

Date: Mon Jan 16 16:03:16 2023
Total elapsed time: 55.902 seconds.

tnom = 27
temp = 27
method = modified trap
totiter = 1021792
traniter = 1021752
tranpoints = 502881
accept = 502050
rejected = 837
matrix size = 90
fillins = 50
solver = Normal
Thread vector: 8.2/6.9[3] 2.0/1.4[3] 1.2/0.8[3] 0.7/1.0[1]  2592/500
Matrix Compiler1: 8.08 KB object code size  1.3/0.7/[0.5]
Matrix Compiler2: 8.87 KB object code size  0.5/0.8/[0.4]

